Circuit: * E:\030_ZohmControl_GmbH\Max11Test_OrigV2\ultrazohm_sw\ip_cores\ADC_MAX11331\LTSpice_Simulation\LS_ADC_Analog_Frontend.asc


Date: Fri Nov 01 23:15:05 2024
Total elapsed time: 0.081 seconds.

tnom = 27
temp = 27
method = trap
totiter = 0
traniter = 0
tranpoints = 0
accept = 0
rejected = 0
matrix size = 4
fillins = 0
solver = Normal

